*HEADING
Commented elastic sample
*MATERIAL, NAME=ALLOY
** *ELASTIC
** 70000, 0.33
*DENSITY
2.70e-09
*SOLID SECTION, ELSET=EALL, MATERIAL=ALLOY
*STEP
*STATIC
0.1, 1.0
*END STEP
