*HEADING
One element tension test
*NODE
1,0,0,0
2,1,0,0
3,1,1,0
4,0,1,0
5,0,0,1
6,1,0,1
7,1,1,1
8,0,1,1
*ELEMENT, TYPE=C3D8, ELSET=SIMP
1,1,2,3,4,5,6,7,8
*MATERIAL, NAME=STEEL
*ELASTIC
210000, .3
*DENSITY
7.8E-6
*SOLID SECTION, ELSET=SIMP, MATERIAL=STEEL
1.
*BOUNDARY
1,1,3,0.
*STEP
*STATIC
1.,1.
*CLOAD
2,1,1.
*ENDSTEP
