*HEADING
Unit mismatch sample
*MATERIAL, NAME=STEEL
*ELASTIC
2.10e+11, 0.30
*DENSITY
7.85e+03
*STEP
*STATIC
0.1, 1.0
*END STEP
