*HEADING
Missing elastic sample
*MATERIAL, NAME=STEEL
*DENSITY
7.85e-09
*SOLID SECTION, ELSET=EALL, MATERIAL=STEEL
*STEP
*STATIC
0.1, 1.0
*END STEP
